Version8/Distrib/Examples/ADiakoptics/EPRI_Ckt5-G/Torn_Circuit/Master.DSS
Clear
Set DefaultBaseFrequency=60
New Circuit.ckt5


Redirect Vsource.dss
Redirect WireData.DSS
Redirect LineGeometry.DSS
Redirect LineCode.DSS
Redirect LoadShape.DSS
Redirect GrowthShape.DSS
Redirect TCC_Curve.DSS
Redirect Spectrum.DSS
Redirect Line.DSS
Redirect Load.DSS
Redirect Transformer.DSS
Redirect Capacitor.DSS
Redirect Reactor.DSS
Redirect CapControl.DSS
MakeBusList
Redirect BusVoltageBases.dss  ! set voltage bases
Buscoords buscoords.dss
GIScoords GIScoords.dss
